Source: 1c-element-lib
Section: misc
Priority: standard
Build-Depends: tar
Maintainer: 1C-Soft LLC <v8@1c.ru>
Standards-Version: 4.7.2.0
Homepage: https://releases.1c.ru/project/

Package: 1c-element-ide
Architecture: all
Provides: 1c-element-ide
Section: misc
Depends: ${misc:Depends}, ${shlibs:Depends}
Description: 1C:Enterprise.Element with IDE
 1C Soft, 1996-2026.
